224
 generated by VMD
 C         5.769000       11.133000       10.775000
 H         6.421000       11.300000       11.607000
 H         4.839000       11.637000       10.942000
 H         6.224000       11.512000        9.883000
 C         5.512000        9.623000       10.619000
 H         5.057000        9.244000       11.511000
 H         4.860000        9.456000        9.787000
 C         6.849000        8.897000       10.377000
 H         7.501000        9.064000       11.210000
 H         7.303000        9.275000        9.485000
 C         6.592000        7.387000       10.222000
 H         5.940000        7.220000        9.390000
 H         6.137000        7.008000       11.113000
 C         7.929000        6.661000        9.980000
 H         8.581000        6.828000       10.811000
 H         8.384000        7.039000        9.088000
 C         7.672000        5.151000        9.824000
 H         7.020000        4.984000        8.992000
 H         7.217000        4.773000       10.715000
 C         9.008000        4.425000        9.582000
 H         9.661000        4.592000       10.413000
 H         9.463000        4.804000        8.691000
 C         8.752000        2.914000        9.426000
 H         8.100000        2.747000        8.595000
 H         8.297000        2.536000       10.318000
 C        10.088000        2.189000        9.185000
 H        10.740000        2.356000       10.016000
 H        10.543000        2.567000        8.293000
 C         9.832000        0.678000        9.028000
 H         9.180000        0.511000        8.197000
 H        10.761000        0.175000        8.861000
 H         9.377000        0.300000        9.920000
 C         7.241000       10.706000        7.445000
 H         6.392000       10.638000        8.093000
 H         7.474000       11.736000        7.269000
 H         8.079000       10.225000        7.905000
 C         6.923000       10.016000        6.106000
 H         6.084000       10.496000        5.647000
 H         7.772000       10.083000        5.459000
 C         6.588000        8.533000        6.360000
 H         5.739000        8.465000        7.007000
 H         7.427000        8.052000        6.819000
 C         6.270000        7.843000        5.021000
 H         7.119000        7.911000        4.374000
 H         5.432000        8.324000        4.562000
 C         5.935000        6.360000        5.275000
 H         5.087000        6.292000        5.922000
 H         6.774000        5.879000        5.734000
 C         5.618000        5.669000        3.936000
 H         6.466000        5.738000        3.289000
 H         4.780000        6.151000        3.477000
 C         5.283000        4.188000        4.189000
 H         4.434000        4.119000        4.837000
 H         6.121000        3.707000        4.649000
 C         4.965000        3.497000        2.850000
 H         5.814000        3.565000        2.204000
 H         4.127000        3.978000        2.392000
 C         4.630000        2.016000        3.104000
 H         3.781000        1.947000        3.752000
 H         5.468000        1.534000        3.564000
 C         4.312000        1.324000        1.765000
 H         5.161000        1.392000        1.118000
 H         4.080000        0.295000        1.942000
 H         3.474000        1.805000        1.307000
 C         1.144000       11.028000       10.089000
 H         1.762000       11.420000       10.870000
 H         0.189000       11.510000       10.112000
 H         1.611000       11.206000        9.142000
 C         0.959000        9.513000       10.293000
 H         0.493000        9.334000       11.239000
 H         0.342000        9.121000        9.511000
 C         2.334000        8.818000       10.258000
 H         2.951000        9.211000       11.040000
 H         2.800000        8.996000        9.311000
 C         2.149000        7.303000       10.462000
 H         1.531000        6.911000        9.681000
 H         1.682000        7.125000       11.409000
 C         3.523000        6.609000       10.428000
 H         4.140000        7.001000       11.208000
 H         3.989000        6.787000        9.481000
 C         3.338000        5.094000       10.631000
 H         2.721000        4.702000        9.850000
 H         2.872000        4.916000       11.577000
 C         4.712000        4.400000       10.597000
 H         5.330000        4.791000       11.378000
 H         5.178000        4.578000        9.650000
 C         4.527000        2.884000       10.800000
 H         3.910000        2.492000       10.020000
 H         4.062000        2.706000       11.747000
 C         5.901000        2.191000       10.766000
 H         6.519000        2.583000       11.547000
 H         6.367000        2.369000        9.820000
 C         5.717000        0.675000       10.970000
 H         5.099000        0.283000       10.189000
 H         6.672000        0.194000       10.946000
 H         5.251000        0.497000       11.917000
 C         3.777000       10.849000        6.341000
 H         2.863000       10.852000        6.898000
 H         4.082000       11.857000        6.150000
 H         4.537000       10.348000        6.905000
 C         3.562000       10.116000        5.004000
 H         2.802000       10.616000        4.441000
 H         4.476000       10.113000        4.448000
 C         3.124000        8.664000        5.280000
 H         2.210000        8.667000        5.836000
 H         3.885000        8.164000        5.842000
 C         2.909000        7.932000        3.943000
 H         3.823000        7.929000        3.386000
 H         2.149000        8.432000        3.379000
 C         2.472000        6.480000        4.218000
 H         1.559000        6.482000        4.775000
 H         3.232000        5.979000        4.780000
 C         2.256000        5.747000        2.881000
 H         3.170000        5.744000        2.324000
 H         1.497000        6.247000        2.318000
 C         1.819000        4.297000        3.156000
 H         0.906000        4.298000        3.713000
 H         2.579000        3.796000        3.719000
 C         1.604000        3.562000        1.819000
 H         2.517000        3.560000        1.263000
 H         0.844000        4.063000        1.257000
 C         1.167000        2.112000        2.094000
 H         0.253000        2.114000        2.652000
 H         1.926000        1.611000        2.658000
 C         0.951000        1.378000        0.757000
 H         1.865000        1.376000        0.200000
 H         0.647000        0.370000        0.950000
 H         0.191000        1.879000        0.195000
 C        10.525000       11.000000        0.696000
 H        11.415000       10.475000        0.418000
 H        10.463000       11.915000        0.143000
 H         9.670000       10.394000        0.478000
 C        10.562000       11.314000        2.203000
 H        11.417000       11.920000        2.421000
 H         9.672000       11.839000        2.480000
 C        10.651000        9.997000        2.998000
 H        11.541000        9.472000        2.721000
 H         9.796000        9.391000        2.781000
 C        10.688000       10.310000        4.506000
 H         9.798000       10.835000        4.783000
 H        11.543000       10.917000        4.723000
 C        10.777000        8.994000        5.301000
 H        11.666000        8.469000        5.024000
 H         9.922000        8.388000        5.084000
 C        10.814000        9.306000        6.808000
 H         9.924000        9.832000        7.086000
 H        11.668000        9.913000        7.026000
 C        10.902000        7.992000        7.603000
 H        11.792000        7.465000        7.326000
 H        10.048000        7.385000        7.386000
 C        10.939000        8.304000        9.111000
 H        10.050000        8.829000        9.389000
 H        11.794000        8.909000        9.328000
 C        11.028000        6.988000        9.906000
 H        11.918000        6.463000        9.628000
 H        10.174000        6.382000        9.689000
 C        11.065000        7.300000       11.414000
 H        10.176000        7.826000       11.692000
 H        11.127000        6.386000       11.965000
 H        11.920000        7.906000       11.631000
 C         5.764000       11.407000        1.685000
 H         5.867000       11.470000        2.748000
 H         4.846000       11.871000        1.387000
 H         6.586000       11.909000        1.216000
 C         5.754000        9.928000        1.257000
 H         4.934000        9.426000        1.725000
 H         5.651000        9.865000        0.194000
 C         7.075000        9.261000        1.685000
 H         7.178000        9.324000        2.749000
 H         7.896000        9.762000        1.216000
 C         7.065000        7.782000        1.258000
 H         6.962000        7.718000        0.194000
 H         6.244000        7.280000        1.726000
 C         8.386000        7.115000        1.686000
 H         8.490000        7.178000        2.748000
 H         9.207000        7.616000        1.216000
 C         8.377000        5.636000        1.258000
 H         8.273000        5.572000        0.195000
 H         7.556000        5.134000        1.726000
 C         9.696000        4.969000        1.686000
 H         9.800000        5.032000        2.749000
 H        10.517000        5.470000        1.217000
 C         9.687000        3.489000        1.258000
 H         9.584000        3.426000        0.196000
 H         8.867000        2.988000        1.727000
 C        11.007000        2.823000        1.686000
 H        11.111000        2.886000        2.749000
 H        11.828000        3.324000        1.218000
 C        10.998000        1.343000        1.258000
 H        10.894000        1.279000        0.195000
 H        11.916000        0.880000        1.556000
 H        10.177000        0.842000        1.728000
 C         0.710000        1.542000        8.314000
 H         0.368000        2.158000        7.508000
 H         0.159000        1.777000        9.201000
 H         0.560000        0.512000        8.064000
 C         2.208000        1.799000        8.556000
 H         2.359000        2.829000        8.806000
 H         2.550000        1.183000        9.362000
 C         3.001000        1.460000        7.279000
 H         2.659000        2.076000        6.474000
 H         2.851000        0.430000        7.030000
 C         4.499000        1.717000        7.522000
 H         4.841000        1.101000        8.328000
 H         4.649000        2.747000        7.772000
 C         5.292000        1.378000        6.245000
 H         4.950000        1.993000        5.440000
 H         5.142000        0.348000        5.996000
 C         6.790000        1.635000        6.487000
 H         7.132000        1.019000        7.293000
 H         6.940000        2.664000        6.737000
 C         7.582000        1.296000        5.212000
 H         7.241000        1.911000        4.406000
 H         7.432000        0.266000        4.962000
 C         9.081000        1.553000        5.454000
 H         9.423000        0.938000        6.259000
 H         9.231000        2.582000        5.703000
 C         9.873000        1.214000        4.177000
 H         9.531000        1.830000        3.372000
 H         9.723000        0.185000        3.927000
 C        11.372000        1.471000        4.420000
 H        11.714000        0.855000        5.225000
 H        11.922000        1.235000        3.532000
 H        11.522000        2.501000        4.669000
